/*--------------------------------*- C++ -*----------------------------------*\
| =========                 |                                                 |
| \\      /  F ield         | OpenFOAM: The Open Source CFD Toolbox           |
|  \\    /   O peration     | Version:  2206                                  |
|   \\  /    A nd           | Website:  www.openfoam.com                      |
|    \\/     M anipulation  |                                                 |
\*---------------------------------------------------------------------------*/
FoamFile
{
    version     2.0;
    format      ascii;
    arch        "LSB;label=32;scalar=64";
    class       polyBoundaryMesh;
    location    "constant/polyMesh";
    object      boundary;
}
// * * * * * * * * * * * * * * * * * * * * * * * * * * * * * * * * * * * * * //

8
(
    frontAndBack
    {
        type            empty;
        inGroups        1(empty);
        nFaces          15954;
        startFace       15772;
    }
    inlet
    {
        type            patch;
        nFaces          50;
        startFace       31726;
    }
    outlet
    {
        type            patch;
        nFaces          50;
        startFace       31776;
    }
    top
    {
        type            wall;
        inGroups        1(wall);
        nFaces          158;
        startFace       31826;
    }
    bottom
    {
        type            wall;
        inGroups        1(wall);
        nFaces          158;
        startFace       31984;
    }
    jet
    {
        type            wall;
        inGroups        1(wall);
        nFaces          1;
        startFace       32142;
    }
    cylinder
    {
        type            wall;
        inGroups        1(wall);
        nFaces          19;
        startFace       32143;
    }
    defaultFaces
    {
        type            empty;
        inGroups        1(empty);
        nFaces          36;
        startFace       32162;
    }
)

// ************************************************************************* //
