/*--------------------------------*- C++ -*----------------------------------*\
| =========                 |                                                 |
| \\      /  F ield         | OpenFOAM: The Open Source CFD Toolbox           |
|  \\    /   O peration     | Version:  2206                                  |
|   \\  /    A nd           | Website:  www.openfoam.com                      |
|    \\/     M anipulation  |                                                 |
\*---------------------------------------------------------------------------*/
FoamFile
{
    version     2.0;
    format      ascii;
    arch        "LSB;label=32;scalar=64";
    class       polyBoundaryMesh;
    location    "constant/polyMesh";
    object      boundary;
}
// * * * * * * * * * * * * * * * * * * * * * * * * * * * * * * * * * * * * * //

8
(
    frontAndBack
    {
        type            empty;
        inGroups        1(empty);
        nFaces          36084;
        startFace       35915;
    }
    inlet
    {
        type            patch;
        nFaces          87;
        startFace       71999;
    }
    outlet
    {
        type            patch;
        nFaces          90;
        startFace       72086;
    }
    top
    {
        type            wall;
        inGroups        1(wall);
        nFaces          193;
        startFace       72176;
    }
    bottom
    {
        type            wall;
        inGroups        1(wall);
        nFaces          193;
        startFace       72369;
    }
    jet
    {
        type            wall;
        inGroups        1(wall);
        nFaces          2;
        startFace       72562;
    }
    cylinder
    {
        type            wall;
        inGroups        1(wall);
        nFaces          61;
        startFace       72564;
    }
    defaultFaces
    {
        type            empty;
        inGroups        1(empty);
        nFaces          144;
        startFace       72625;
    }
)

// ************************************************************************* //
